FeederM1/LineCodes.dss
New Linecode.6 nphases=3 rmatrix=[0.757254091 0.018049545 0.018049545 | 0.018049545 0.757254091 0.018049545 | 0.018049545 0.018049545 0.757254091] !ohms per 1000 ft
~ xmatrix=[0.301700148 0.270380881 0.262416108 | 0.270380881 0.301700148 0.270380881 | 0.262416108 0.270380881 0.301700148]
~ cmatrix=[15 | -12 15 | -12 -12 15]
~ Normamps=65  {65 1.25 *}

New Linecode.4 nphases=3 rmatrix=[0.482632879 0.018049545 0.0180495455 | 0.018049545 0.482632879 0.018049545 | 0.018049545 0.018049545 0.482632879] 
!ohms per 1000 ft
~ xmatrix=[0.296365866 0.265053738 0.257088964 | 0.265053738 0.296365866 0.265053738 | 0.257088964 0.265053738 0.296365866]
~ cmatrix=[15 | -12 15 | -12 -12 15]
~ Normamps=90  {90 1.25 *}

New Linecode.2 nphases=3 rmatrix=[0.309905606 0.018049545 0.018049545 | 0.018049545 0.309905606 0.018049545 | 0.018049545 0.018049545 0.309905606] 
!ohms per 1000 ft
~ xmatrix=[0.291028536 0.25976762 0.251802847 | 0.25976762 0.291028536 0.25976762 | 0.251802847 0.25976762 0.291028536]
~ cmatrix=[15 | -12 15 | -12 -12 15]
~ Normamps=156  {156 1.25 *}

New Linecode.1 nphases=3 rmatrix=[ 0.249867727 0.018049545 0.018049545 | 0.018049545 0.249867727 0.018049545 | 0.018049545 0.018049545 0.249867727] 
!ohms per 1000 ft
~ xmatrix=[0.288376719 0.257095798 0.249131025 | 0.257095798 0.288376719 0.257095798 |  0.249131025 0.257095798 0.288376719]
~ cmatrix=[15 | -12 15 | -12 -12 15]
~ Normamps=177  {177 1.25 *}

!New Linecode.1/0A nphases=3 rmatrix=[0.201761667 0.018049545 0.018049545 | 0.018049545 0.201761667 0.018049545 | 0.018049545 0.018049545 0.201761667] 
!ohms per 1000 ft
!~ xmatrix=[ 0.285770602	0.254451335 0.246486562 | 0.254451335 0.285770602 0.254451335 |  0.246486562 0.254451335 0.285770602]
!~ cmatrix=[15 | -12 15 | -12 -12 15]
!~ Normamps=202  {202 1.25 *}
!~ Neutral=2 Kron=yes    ! eliminate the neutral conductor
!~ Neutral=2 Kron=yes    ! eliminate the neutral conductor

New Linecode.1/0A nphases=1 rmatrix=0.25386817 xmatrix=0.07582623 cmatrix=15.00000000 

!New Linecode.1/0A_split nphases=3 rmatrix=[0.201761667 0.018049545 0.018049545 | 0.018049545 0.201761667 0.018049545 | 0.018049545 0.018049545 0.201761667] 
!ohms per 1000 ft
!~ xmatrix=[ 0.285770602	0.254451335 0.246486562 | 0.254451335 0.285770602 0.254451335 |  0.246486562 0.254451335 0.285770602]
!~ cmatrix=[15 | -12 15 | -12 -12 15]
!~ Normamps=202  {202 1.25 *}
!~ Neutral=2 Kron=yes    ! eliminate the neutral conductor
!~ Neutral=2 Kron=yes    ! eliminate the neutral conductor

New LineCode.1/0a_split nphases=2
~ rmatrix=[0.28652320 0.10281108 |0.10281108 0.28652320 ]
~ xmatrix=[0.12019001 0.08090597 |0.08090597 0.12019001 ]
~ cmatrix=[15.00000000 -12.00000000 |-12.00000000 15.00000000 ]
~ normamps=202
~ emergamps=250


New Linecode.1/0A3 nphases=3 rmatrix=[0.201761667 0.018049545 0.018049545 | 0.018049545 0.201761667 0.018049545 | 0.018049545 0.018049545 0.201761667] 
!ohms per 1000 ft
~ xmatrix=[ 0.285770602	0.254451335 0.246486562 | 0.254451335 0.285770602 0.254451335 |  0.246486562 0.254451335 0.285770602]
~ cmatrix=[15 | -12 15 | -12 -12 15]
~ Normamps=202  {202 1.25 *}

New Linecode.2/0 nphases=3 rmatrix=[ 0.163693485 0.018049545 0.018049545 | 0.018049545 0.163693485 0.018049545 | 0.018049545 0.018049545 0.163693485] 
!ohms per 1000 ft
~ xmatrix=[0.283040781 0.251744507 0.243779734 | 0.251744507 0.283040781 0.251744507 | 0.243779734 0.251744507 0.283040781]
~ cmatrix=[15 | -12 15 | -12 -12 15]
~ Normamps=230  {230 1.25 *}

New Linecode.3/0 nphases=3 rmatrix=[ 0.133769242 0.018049545 0.018049545 | 0.018049545 0.133769242 0.018049545 | 0.018049545 0.018049545 0.133769242] 
!ohms per 1000 ft
~ xmatrix=[ 0.28043632 0.249124191 0.241159418 | 0.249124191 0.28043632 0.249124191 | 0.241159418 0.249124191 0.28043632]
~ cmatrix=[15 | -12 15 | -12 -12 15]
~ Normamps=263  {263 1.25 *}

!New Linecode.4/0A nphases=3 rmatrix=[ 0.109716212 0.018049545 0.018049545 | 0.018049545 0.109716212 0.018049545 | 0.018049545 0.018049545 0.109716212] 
!ohms per 1000 ft
!~ xmatrix=[ 0.27765665 0.246417363 0.23845259 | 0.246417363 0.27765665 0.246417363 | 0.23845259 0.246417363 0.27765665]
!~ cmatrix=[15 | -12 15 | -12 -12 15]
!~ Normamps=299  {299 1.25 *}
!~ Neutral=2 Kron=yes    ! eliminate the neutral conductor
!~ Neutral=2 Kron=yes    ! eliminate the neutral conductor

New LineCode.4/0a nphases=1
~ rmatrix=0.12983011 
~ xmatrix=0.05932303 
~ cmatrix=15.00000000
~ baseFreq=60
~ normamps=299
~ emergamps=400

!New Linecode.4/0A_split nphases=3 rmatrix=[ 0.109716212 0.018049545 0.018049545 | 0.018049545 0.109716212 0.018049545 | 0.018049545 0.018049545 0.109716212] 
!ohms per 1000 ft
!~ xmatrix=[ 0.27765665 0.246417363 0.23845259 | 0.246417363 0.27765665 0.246417363 | 0.23845259 0.246417363 0.27765665]
!~ cmatrix=[15 | -12 15 | -12 -12 15]
!~ Normamps=299  {299 1.25 *}
!~ Neutral=2 Kron=yes    ! eliminate the neutral conductor
!~ Neutral=2 Kron=yes    ! eliminate the neutral conductor

New LineCode.4/0a_split nphases=2
~ rmatrix=[0.15635003 0.06468336 |0.06468336 0.15635003]
~ xmatrix=[0.07856455 0.03936049 |0.03936049 0.07856455]
~ cmatrix=[15.00000000 -12.00000000 |-12.00000000 15.00000000]
~ baseFreq=60
~ normamps=299
~ emergamps=400

!New Linecode.350A  nphases=3
!~ rmatrix=[0.073731364 0.018049545 0.018049545 | 0.018049545 0.073731364 0.018049545 |0.018049545 0.018049545 0.073731364]  
! ohms per 1000 ft
!~ xmatrix=[ 0.270684507 0.240374302 0.232409529 | 0.240374302 0.270684507 0.240374302 | 0.232409529 0.240374302 0.270684507 ]
!~ cmatrix=[15 | -12 15 | -12 -12 15]
!~ Normamps=399  {399 1.25 *}
!~ Neutral=2 Kron=yes    ! eliminate the neutral conductor
!~ Neutral=2 Kron=yes    ! eliminate the neutral conductor

New LineCode.350a nphases=1
~ rmatrix=[0.07964387 ]
~ xmatrix=[0.05401546 ]
~ cmatrix=[15.00000000 ]
~ baseFreq=60
~ normamps=399
~ emergamps=435


!New Linecode.500A  nphases=3
!~ rmatrix=[0.057064697 0.018049545 0.018049545 | 0.018049545 0.057064697 0.018049545 | 0.018049545 0.018049545 0.057064697]  
! ohms per 1000 ft
!~ xmatrix=[ 0.266209885 0.236235109 0.228270336 | 0.236235109 0.266209885 0.236235109 | 0.228270336 0.236235109 0.266209885]
!~ cmatrix=[15 | -12 15 | -12 -12 15]
!~ NormAmps=483 {483 1.25 *}  
!~ Neutral=2 Kron=yes    ! eliminate the neutral conductor
!~ Neutral=2 Kron=yes    ! eliminate the neutral conductor

New LineCode.500a
~ nphases=1
~ rmatrix=0.05614029
~ xmatrix=0.05218394 
~ cmatrix=15.00000000 
~ NormAmps=483 {483 1.25 *}  


!New Linecode.750A  nphases=3
!~ rmatrix=[0.044375303 0.018049545 0.018049545 | 0.018049545 0.044375303 0.018049545 | 0.018049545 0.018049545 0.044375303]  
! ohms per 1000 ft
!~ xmatrix=[ 0.261509955 0.248345084 0.240380311 | 0.248345084 0.261509955 0.248345084| 0.240380311 0.248345084 0.261509955]
!~ cmatrix=[15 | -12 15 | -12 -12 15]
!~ NormAmps=580 {580 1.25 *}  
!~ Neutral=2 Kron=yes    ! eliminate the neutral conductor
!~ Neutral=2 Kron=yes    ! eliminate the neutral conductor

New LineCode.750a
~ nphases=1
~ rmatrix=0.03934840 
~ xmatrix=0.02733673 
~ cmatrix=15.00000000
~ NormAmps=580 {580 1.25 *}

! 3 Phases
New Linecode.350A3  nphases=3
~ rmatrix=[0.073731364 0.018049545 0.018049545 | 0.018049545 0.073731364 0.018049545 |0.018049545 0.018049545 0.073731364]  
! ohms per 1000 ft
~ xmatrix=[ 0.270684507 0.240374302 0.232409529 | 0.240374302 0.270684507 0.240374302 | 0.232409529 0.240374302 0.270684507 ]
~ cmatrix=[15 | -12 15 | -12 -12 15]
~ Normamps=399  {399 1.25 *}

New Linecode.500A3  nphases=3
~ rmatrix=[0.057064697 0.018049545 0.018049545 | 0.018049545 0.057064697 0.018049545 | 0.018049545 0.018049545 0.057064697]  
! ohms per 1000 ft
~ xmatrix=[ 0.266209885 0.236235109 0.228270336 | 0.236235109 0.266209885 0.236235109 | 0.228270336 0.236235109 0.266209885]
~ cmatrix=[15 | -12 15 | -12 -12 15]
~ NormAmps=483 {483 1.25 *}  

New Linecode.750A3  nphases=3
~ rmatrix=[0.044375303 0.018049545 0.018049545 | 0.018049545 0.044375303 0.018049545 | 0.018049545 0.018049545 0.044375303]  
! ohms per 1000 ft
~ xmatrix=[ 0.261509955 0.248345084 0.240380311 | 0.248345084 0.261509955 0.248345084| 0.240380311 0.248345084 0.261509955]
~ cmatrix=[15 | -12 15 | -12 -12 15]
~ NormAmps=580 {580 1.25 *}  

New Linecode.UG-1-B750CU_PILC15KV nphases=3 r1=0.05 x1=0.15 r0=0.05 x0=0.15 c1=265.2582 c0=0 units=km baseFreq=60 normamps=535 emergamps=535 
